<?xml version="1.0" encoding="UTF-8"?>

<!-- generated on 2025-08-14 23:35:33 by Eclipse SUMO sumo Version 1.24.0
-->

<sumoConfiguration xmlns:xsi="http://www.w3.org/2001/XMLSchema-instance" xsi:noNamespaceSchemaLocation="http://sumo.dlr.de/xsd/sumoConfiguration.xsd">

    <input>
        <net-file value="environment_obs1.net.xml"/>
        <route-files value="episode_routes.rou.xml"/>
    </input>

</sumoConfiguration>
